/*--------------------------------*- C++ -*----------------------------------*\
  =========                 |
  \\      /  F ield         | OpenFOAM: The Open Source CFD Toolbox
   \\    /   O peration     | Website:  https://openfoam.org
    \\  /    A nd           | Version:  dev
     \\/     M anipulation  |
\*---------------------------------------------------------------------------*/
FoamFile
{
    format      ascii;
    class       dictionary;
    location    "system";
    object      functions;
}
// * * * * * * * * * * * * * * * * * * * * * * * * * * * * * * * * * * * * * //

#includeFunc multiScalarRKTransport
(
    nFields=2,
    fields=(rho T),
    FCTiters=(0 1),
    FCTlimits=(() ()),
    advectingFlux=phiv,
    massFlux=phi,
    RK_ButcherCoeffs=4 4((0.5 0 0 0)
          (0 0.5 0 0)
          (0 0 1 0)
          (0.16666666667 0.33333333333 0.33333333333 0.16666666667)),
    betaCoeffs=(0 0 0),
    correctionScheme=quinticUpwind,
    velocityFieldDict=velocityDict
)


// ************************************************************************* //
