/*--------------------------------*- C++ -*----------------------------------*\
  =========                 |
  \\      /  F ield         | OpenFOAM: The Open Source CFD Toolbox
   \\    /   O peration     | Website:  https://openfoam.org
    \\  /    A nd           | Version:  dev
     \\/     M anipulation  |
\*---------------------------------------------------------------------------*/
FoamFile
{
    format      ascii;
    class       dictionary;
    location    "system";
    object      fvSchemes;
}
// * * * * * * * * * * * * * * * * * * * * * * * * * * * * * * * * * * * * * //

ddtSchemes
{
    default         CrankNicolson 0.44; //0.8; // =2(1-alpha), alpha > 1-1/c
}

gradSchemes
{
    default         none;
}

divSchemes
{
    default         none;
    div(phi,T)      Gauss linear;
}

laplacianSchemes
{
    default         none;
}

interpolationSchemes
{
    default         linear;
}

snGradSchemes
{
    default         none;
}


// ************************************************************************* //
